------- AERODYN v15 for OpenFAST INPUT FILE -----------------------------------------------
NREL 5.0 MW offshore baseline aerodynamic input properties.
======  General Options  ============================================================================
False         Echo               - Echo the input to "<rootname>.AD.ech"?  (flag)
"default"     DTAero             - Time interval for aerodynamic calculations {or "default"} (s)
          3   WakeMod            - Type of wake/induction model (switch) {0=none, 1=BEMT, 2=DBEMT, 3=OLAF} [WakeMod cannot be 2 or 3 when linearizing]
          1   AFAeroMod          - Type of blade airfoil aerodynamics model (switch) {1=steady model, 2=Beddoes-Leishman unsteady model} [AFAeroMod must be 1 when linearizing]
          0   TwrPotent          - Type tower influence on wind based on potential flow around the tower (switch) {0=none, 1=baseline potential flow, 2=potential flow with Bak correction}
          0   TwrShadow          - Calculate tower influence on wind based on downstream tower shadow (switch) {0=none, 1=Powles model, 2=Eames model}
False         TwrAero            - Calculate tower aerodynamic loads? (flag)
False         FrozenWake         - Assume frozen wake during linearization? (flag) [used only when WakeMod=1 and when linearizing]
False         CavitCheck         - Perform cavitation check? (flag) [AFAeroMod must be 1 when CavitCheck=true]
False         Buoyancy           - Include buoyancy effects? (flag)
False         CompAA             - Flag to compute AeroAcoustics calculation [used only when WakeMod = 1 or 2]
"unused"      AA_InputFile       - AeroAcoustics input file [used only when CompAA=true]
======  Environmental Conditions  ===================================================================
1.225                   AirDens     - Air density (kg/m^3)
1.4639E-05              KinVisc     - Kinematic air viscosity (m^2/s)
3.350000000000000e+02 SpdSound    - Speed of sound (m/s)
1.035000000000000e+05 Patm        - Atmospheric pressure (Pa) [used only when CavitCheck=True]
1.700000000000000e+03 Pvap        - Vapour pressure of fluid (Pa) [used only when CavitCheck=True]
======  Blade-Element/Momentum Theory Options  ====================================================== [unused when WakeMod=0 or 3]
2                      SkewMod     - Type of skewed-wake correction model (switch) {1=uncoupled, 2=Pitt/Peters, 3=coupled} [used only when WakeMod=1]
"default"              SkewModFactor - Constant used in Pitt/Peters skewed wake model {or "default" is 15/32*pi} (-) [used only when SkewMod=2; unused when WakeMod=0]
True                   TipLoss     - Use the Prandtl tip-loss model? (flag) [used only when WakeMod=1]
True                   HubLoss     - Use the Prandtl hub-loss model? (flag) [used only when WakeMod=1]
True                   TanInd      - Include tangential induction in BEMT calculations? (flag) [used only when WakeMod=1]
True                   AIDrag      - Include the drag term in the axial-induction calculation? (flag) [used only when WakeMod=1]
True                   TIDrag      - Include the drag term in the tangential-induction calculation? (flag) [used only when WakeMod=1 and TanInd=TRUE]
"Default"              IndToler    - Convergence tolerance for BEMT nonlinear solve residual equation {or "default"} (-) [used only when WakeMod=1]
100                    MaxIter     - Maximum number of iteration steps (-) [used only when WakeMod=1]
======  Dynamic Blade-Element/Momentum Theory Options  ============================================== [used only when WakeMod=2]
          1   DBEMT_Mod          - Type of dynamic BEMT (DBEMT) model {1=constant tau1, 2=time-dependent tau1, 3=constant tau1 with continuous formulation} (-) [used only when WakeMod=2]
          20   tau1_const         - Time constant for DBEMT (s) [used only when WakeMod=2 and DBEMT_Mod=1 or 3] 
======  OLAF -- cOnvecting LAgrangian Filaments (Free Vortex Wake) Theory Options  ================== [used only when WakeMod=3]
"OLAF.dat"               OLAFInputFileName - Input file for OLAF [used only when WakeMod=3]
======  Beddoes-Leishman Unsteady Airfoil Aerodynamics Options  ===================================== [used only when AFAeroMod=2]
          2   UAMod              - Unsteady Aero Model Switch (switch) {2=B-L Gonzalez, 3=B-L Minnema/Pierce, 4=B-L HGM 4-states, 5=B-L 5 states, 6=Oye, 7=Boeing-Vertol} [used only when AFAeroMod=2]
True          FLookup            - Flag to indicate whether a lookup for f' will be calculated (TRUE) or whether best-fit exponential equations will be used (FALSE); if FALSE S1-S4 must be provided in airfoil input files (flag) [used only when AFAeroMod=2]
======  Airfoil Information =========================================================================
          2   AFTabMod           - Interpolation method for multiple airfoil tables {1=1D interpolation on AoA (first table only); 2=2D interpolation on AoA and Re; 3=2D interpolation on AoA and UserProp} (-)
          1   InCol_Alfa         - The column in the airfoil tables that contains the angle of attack (-)
          2   InCol_Cl           - The column in the airfoil tables that contains the lift coefficient (-)
          3   InCol_Cd           - The column in the airfoil tables that contains the drag coefficient (-)
          4   InCol_Cm           - The column in the airfoil tables that contains the pitching-moment coefficient; use zero if there is no Cm column (-)
          0   InCol_Cpmin        - The column in the airfoil tables that contains the Cpmin coefficient; use zero if there is no Cpmin column (-)
          8   NumAFfiles         - Number of airfoil files used (-)
"./Airfoils/Cylinder1.dat"    AFNames            - Airfoil file names (NumAFfiles lines) (quoted strings)
"./Airfoils/Cylinder2.dat"
"./Airfoils/DU40_A17.dat"
"./Airfoils/DU35_A17.dat"
"./Airfoils/DU30_A17.dat"
"./Airfoils/DU25_A17.dat"
"./Airfoils/DU21_A17.dat"
"./Airfoils/NACA64_A17.dat"
======  Rotor/Blade Properties  =====================================================================
True          UseBlCm            - Include aerodynamic pitching moment in calculations?  (flag)
"./NRELOffshrBsline5MW_AeroDyn_blade.dat"    ADBlFile(1)        - Name of file containing distributed aerodynamic properties for Blade #1 (-)
"./NRELOffshrBsline5MW_AeroDyn_blade.dat"    ADBlFile(2)        - Name of file containing distributed aerodynamic properties for Blade #2 (-) [unused if NumBl < 2]
"./NRELOffshrBsline5MW_AeroDyn_blade.dat"    ADBlFile(3)        - Name of file containing distributed aerodynamic properties for Blade #3 (-) [unused if NumBl < 3]
======  Hub Properties ============================================================================== [used only when Buoyancy=True]
0.0   VolHub             - Hub volume (m^3)
0.0   HubCenBx           - Hub center of buoyancy x direction offset (m)
======  Nacelle Properties ========================================================================== [used only when Buoyancy=True]
0.0   VolNac             - Nacelle volume (m^3)
0,0,0 NacCenB            - Position of nacelle center of buoyancy from yaw bearing in nacelle coordinates (m)
======  Tail fin Aerodynamics ======================================================================== 
False         TFinAero           - Calculate tail fin aerodynamics model (flag)
"unused"      TFinFile           - Input file for tail fin aerodynamics [used only when TFinAero=True]
======  Tower Influence and Aerodynamics ============================================================ [used only when TwrPotent/=0, TwrShadow/=0, TwrAero=True, or Buoyancy=True]
         11   NumTwrNds         - Number of tower nodes used in the analysis  (-) [used only when TwrPotent/=0, TwrShadow/=0, TwrAero=True, or Buoyancy=True]
TwrElev        TwrDiam        TwrCd          TwrTI          TwrCb !TwrTI used only with TwrShadow=2, TwrCb used only with Buoyancy=True
(m)              (m)           (-)            (-)           (-)
1.0000000E+01  6.5000000E+00  1.0000000E+00  1.0000000E-01  0.0
1.7760000E+01  6.2400000E+00  1.0000000E+00  1.0000000E-01  0.0
2.5520000E+01  5.9700000E+00  1.0000000E+00  1.0000000E-01  0.0
3.3280000E+01  5.7100000E+00  1.0000000E+00  1.0000000E-01  0.0
4.1040000E+01  5.4500000E+00  1.0000000E+00  1.0000000E-01  0.0
4.8800000E+01  5.1800000E+00  1.0000000E+00  1.0000000E-01  0.0
5.6560000E+01  4.9200000E+00  1.0000000E+00  1.0000000E-01  0.0
6.4320000E+01  4.6600000E+00  1.0000000E+00  1.0000000E-01  0.0
7.2080000E+01  4.4000000E+00  1.0000000E+00  1.0000000E-01  0.0
7.9840000E+01  4.1300000E+00  1.0000000E+00  1.0000000E-01  0.0
8.7600000E+01  3.8700000E+00  1.0000000E+00  1.0000000E-01  0.0
======  Outputs  ====================================================================================
True          SumPrint            - Generate a summary file listing input options and interpolated properties to "<rootname>.AD.sum"?  (flag)
          3   NBlOuts             - Number of blade node outputs [0 - 9] (-)
          1,          9,         19    BlOutNd             - Blade nodes whose values will be output  (-)
          0   NTwOuts             - Number of tower node outputs [0 - 9]  (-)
          1,          2,          6    TwOutNd             - Tower nodes whose values will be output  (-)
                   OutList             - The next line(s) contains a list of output parameters.  See OutListParameters.xlsx for a listing of available output channels, (-)
"RtAeroCp"
"RtAeroCq"
"RtAeroCt"
"RtAeroFxh"
"RtAeroFyh"
"RtAeroFzh"
"RtAeroMxh"
"RtAeroMyh"
"RtAeroMzh"
"RtAeroPwr"
"RtAeroFxg"
"RtAeroFyg"
"RtAeroFzg"
"RtAeroMxg"
"RtAeroMyg"
"RtAeroMzg"
"RtArea"
"RtSkew"
"RtSpeed"
"RtTSR"
"RtVAvgxh"
"RtVAvgyh"
"RtVAvgzh"
"B1Pitch"
"B2Pitch"
"B3Pitch"
"B1Azimuth"
"B2Azimuth"
"B3Azimuth"
"B1AeroFx"
"B1AeroFy"
"B1AeroFz"
"B1AeroMx"
"B1AeroMy"
"B1AeroMz"
"B1AeroPwr"
"B1AeroFxg"
"B1AeroFyg"
"B1AeroFzg"
"B1AeroMxg"
"B1AeroMyg"
"B1AeroMzg"
"B2AeroFx"
"B2AeroFy"
"B2AeroFz"
"B2AeroMx"
"B2AeroMy"
"B2AeroMz"
"B2AeroPwr"
"B2AeroFxg"
"B2AeroFyg"
"B2AeroFzg"
"B2AeroMxg"
"B2AeroMyg"
"B2AeroMzg"
"B3AeroFx"
"B3AeroFy"
"B3AeroFz"
"B3AeroMx"
"B3AeroMy"
"B3AeroMz"
"B3AeroPwr"
"B3AeroFxg"
"B3AeroFyg"
"B3AeroFzg"
"B3AeroMxg"
"B3AeroMyg"
"B3AeroMzg"
"B4AeroFx"
"B4AeroFy"
"B4AeroFz"
"B4AeroMx"
"B4AeroMy"
"B4AeroMz"
"B4AeroPwr"
"B4AeroFxg"
"B4AeroFyg"
"B4AeroFzg"
"B4AeroMxg"
"B4AeroMyg"
"B4AeroMzg"
END of input file (the word "END" must appear in the first 3 columns of this last OutList line)
====== Outputs for all blade stations (same ending as above for B1N1.... =========================== [optional section]
   9              BldNd_BladesOut     - Number of blades to output all node information at.  Up to number of blades on turbine. (-)
   "All"          BldNd_BlOutNd       - Future feature will allow selecting a portion of the nodes to output.  Not implemented yet. (-)
                  OutListAD             - The next line(s) contains a list of output parameters.  See OutListParameters.xlsx for a listing of available output channels, (-)
Alpha
Cl
Cd
Cm
Fx
Fy
Vx
Vy
VUndx
VUndy
VUndz
VDisx
VDisy
VDisz
STVx
STVy
STVz
Vrel
Vindx
Vindy
Gam
Fn
Ft
Cx
Cy
Cn
Ct
Fl
Fd
Mm
END of input file (the word "END" must appear in the first 3 columns of this last OutList line)
---------------------------------------------------------------------------------------
